Network_data/Greensboro_GSO_urban_SH_BH/uhs10_1247/Master.dss
Clear

New Circuit.substation_uhs10_69 bus1=uhs10_69 pu=1.0 basekV=69.0 R1=1e-05 X1=1e-05 R0=1e-05 X0=1e-05

Redirect LineCodes.dss
Redirect uhs10_1247--udt11713/LineCodes.dss
Redirect uhs10_1247--udt12084/LineCodes.dss
Redirect uhs10_1247--udt13528/LineCodes.dss
Redirect Lines.dss
Redirect uhs10_1247--udt11713/Lines.dss
Redirect uhs10_1247--udt12084/Lines.dss
Redirect uhs10_1247--udt13528/Lines.dss
Redirect Transformers.dss
Redirect uhs10_1247--udt11713/Transformers.dss
Redirect uhs10_1247--udt12084/Transformers.dss
Redirect uhs10_1247--udt13528/Transformers.dss
Redirect Regulators.dss
Redirect LoadShapes.dss
Redirect uhs10_1247--udt11713/Loads.dss
Redirect uhs10_1247--udt12084/Loads.dss
Redirect uhs10_1247--udt13528/Loads.dss
Redirect uhs10_1247--udt11713/Capacitors.dss
Redirect uhs10_1247--udt12084/Capacitors.dss
Redirect uhs10_1247--udt13528/Capacitors.dss
Redirect Storage.dss
Redirect uhs10_1247--udt11713/Storage.dss
Redirect uhs10_1247--udt12084/Storage.dss
Redirect uhs10_1247--udt13528/Storage.dss
Redirect uhs10_1247--udt11713/PVSystems.dss
Redirect uhs10_1247--udt12084/PVSystems.dss
Redirect uhs10_1247--udt13528/PVSystems.dss
new monitor.m1 element=Line.sb2_uhs10_1247_351 mode=0
new monitor.m2 element=Line.sb2_uhs10_1247_351 mode=1
new energymeter.m3 Line.sb2_uhs10_1247_351

Set Voltagebases=[0.12, 0.208, 0.24, 0.48, 7.2, 12.47, 69.0]

Calcvoltagebases

Buscoords Buscoords.dss
set maxcontroliter=50

Solve mode=yearly stepsize=15m number=35040
Export monitors m1
Plot monitor object= m1 channels=(7 9 11 )
Export monitors m2
Plot monitor object= m2 channels=(1 3 5 )
Plot Profile Phases=All
